100
---
RIYAD
20169817
20
9.801009
93
---
CEREAL
20156758
29
8.564322
49
---
OIER
20175164
20
9.144008
37
---
RAYAN
20168434
20
6.750132
35
---
TARIQ
20172701
22
6.678428
92
---
ARESIO
20155023
18
7.981776
79
---
CARO
20189405
30
8.737780
44
---
ACACIO
20180241
22
7.176641
31
---
CARINOS
20173795
20
6.609559
76
---
HERNAN
20155893
28
6.656408
77
---
DORIAN
20153906
30
6.210117
57
---
KEVIN
20157872
20
9.191192
76
---
CESIDIO
20176605
30
8.557833
79
---
GAMAL
20154645
18
8.080840
17
---
TXOMIN
20153726
19
7.845682
84
---
TEGUESTE
20173359
27
6.207755
24
---
LAINER
20189999
19
9.559823
21
---
NEHUEN
20189914
17
9.482159
16
---
BENEHARO
20151162
29
8.375569
26
---
LAIN
20157362
22
9.652107
84
---
ARDUINO
20165004
24
8.317720
51
---
ABIYA
20177808
18
8.123232
78
---
BRAIS
20162867
30
8.307884
89
---
ABBAS
20180164
25
6.141684
78
---
CARITON
20183496
29
9.493085
85
---
FARUK
20189197
27
9.613465
99
---
ARETAS
20177008
23
6.655872
85
---
CARISIO
20185669
18
8.598828
32
---
ZIGOR
20175549
20
8.802480
38
---
AMIEL
20163822
20
6.296644
67
---
JONAY
20159722
26
8.042744
98
---
SVEN
20161921
24
8.877074
20
---
MARKEL
20169387
25
9.777272
51
---
ALTAIR
20164117
28
7.738053
10
---
ARCADIO
20164452
25
9.332973
31
---
APTONIO
20177343
23
7.927743
37
---
KOLDO
20178771
19
8.487291
13
---
ZEBENZUI
20167145
26
8.695746
68
---
GAEL
20164537
19
8.436423
67
---
SAMAY
20179498
21
8.961754
28
---
LUZBEL
20186915
26
8.612521
33
---
CERBERO
20171765
18
7.041988
89
---
BENTOR
20177758
18
6.445103
42
---
TELEMACO
20173490
25
8.666226
36
---
ALTAF
20181254
21
7.318568
27
---
JEZIEL
20189390
17
9.309565
40
---
TAHIEL
20158339
23
9.834548
93
---
ANTAR
20180829
26
6.484573
72
---
DORAMAS
20165969
27
9.772205
93
---
VANIA
20184614
19
9.174627
59
---
ASDRUBAL
20162594
29
9.638572
89
---
ARGIMIRO
20170427
25
6.651027
34
---
IGOTZ
20184718
23
7.854649
87
---
ADIF
20170343
21
6.721685
72
---
TINGUARO
20179374
18
8.412435
54
---
LARS
20183687
27
6.712830
30
---
HENNING
20170442
18
6.552954
42
---
ANDER
20163667
30
9.633939
66
---
OFIR
20183636
28
7.984298
40
---
AIRAM
20166378
26
8.435531
33
---
ARRIO
20156897
18
6.431393
68
---
ADIR
20165180
21
7.325543
18
---
URANO
20167665
30
8.334281
34
---
EUKEN
20176691
27
7.949707
24
---
ARES
20185438
25
8.070859
28
---
RISTO
20172744
22
9.319756
45
---
AIMAR
20160528
21
8.917440
68
---
ANXO
20189408
21
9.590241
22
---
EUDALD
20167020
17
9.133128
80
---
CHENCHO
20162453
18
9.462139
75
---
RUYMAN
20152917
23
9.945868
74
---
MAGNUS
20159224
23
9.460725
18
---
ARCHIBALDO
20154882
22
7.207052
69
---
ARCESILAO
20182554
18
6.206033
14
---
CHANDRA
20168850
27
8.768306
50
---
CESARION
20155645
25
8.314539
58
---
REDA
20174206
22
7.217142
90
---
NAHUEL
20169586
19
8.438916
57
---
CARL
20175138
25
6.934625
85
---
CESAREO
20153733
18
9.694911
25
---
CATRIEL
20169787
20
9.307078
36
---
ARCONCIO
20164930
29
7.377004
84
---
IBAI
20176706
17
7.029876
80
---
DALMACIO
20175412
28
7.232626
30
---
CESARINO
20158722
25
6.438931
71
---
DIDAC
20181508
27
6.801409
46
---
DAGAMUNDO
20163310
23
6.923984
45
---
MILAN
20171780
19
8.221591
11
---
AMETZ
20165828
22
7.221632
77
---
ITZAE
20161157
26
8.209266
93
---
ASENSIO
20177753
28
8.791393
38
---
POSEIDON
20176189
17
8.131839
86
---
RAYCO
20175119
25
8.074060
46
---
TAREQ
20165124
27
9.207587
71
---
ACORAN
20156962
17
6.254242
72
---
ACAYMO
20158317
25
8.801205
61
---
BJÖRN
20151043
17
7.220955
33
---
CIBRAN
20176559
29
6.724645
41
---
IZAN
20177026
29
8.613220
38
---
SEAMUS
20185515
19
6.628557
55
---